<?xml version="1.0" encoding="UTF-8"?>

<!-- generated on 2024-11-19 18:59:25.350076 by randomTrips.py v1_21_0+0000-d7b3b481c43
<configuration>
    <net-file value="simpleNet.net.xml"/>
    <route-file value="randomCar.rou.xml"/>
    <vehicle-class value="passenger"/>
    <fringe-factor value="10"/>
    <end value="100.0"/>
</configuration>
-->

<!-- generated on 2024-11-19 18:59:25 by Eclipse SUMO duarouter Version 1.21.0
<duarouterConfiguration xmlns:xsi="http://www.w3.org/2001/XMLSchema-instance" xsi:noNamespaceSchemaLocation="http://sumo.dlr.de/xsd/duarouterConfiguration.xsd">

    <input>
        <net-file value="simpleNet.net.xml"/>
        <route-files value="trips.trips.xml"/>
    </input>

    <output>
        <output-file value="randomCar.rou.xml"/>
        <alternatives-output value="NUL"/>
    </output>

    <time>
        <begin value="0"/>
        <end value="100.0"/>
    </time>

    <report>
        <no-warnings value="true"/>
        <ignore-errors value="true"/>
        <no-step-log value="true"/>
    </report>

</duarouterConfiguration>
-->

<routes xmlns:xsi="http://www.w3.org/2001/XMLSchema-instance" xsi:noNamespaceSchemaLocation="http://sumo.dlr.de/xsd/routes_file.xsd">
    <vType id="passenger" vClass="passenger"/>
    <vehicle id="0" type="passenger" depart="0.00">
        <route edges="J2toJ6 J6toJ11 J11toJ10 J10toJ9"/>
    </vehicle>
    <vehicle id="1" type="passenger" depart="1.00">
        <route edges="J18toJ17 J17toJ16 J16toJ15 J15toJ14"/>
    </vehicle>
    <vehicle id="2" type="passenger" depart="2.00">
        <route edges="J3toJ7 J7toJ6 J6toJ5 J5toJ10"/>
    </vehicle>
    <vehicle id="3" type="passenger" depart="3.00">
        <route edges="J8toJ7 J7toJ6 J6toJ5 J5toJ10 J10toJ9"/>
    </vehicle>
    <vehicle id="4" type="passenger" depart="4.00">
        <route edges="J1toJ5 J5toJ10 J10toJ9"/>
    </vehicle>
    <vehicle id="5" type="passenger" depart="5.00">
        <route edges="J15toJ16 J16toJ17 J17toJ18"/>
    </vehicle>
    <vehicle id="6" type="passenger" depart="6.00">
        <route edges="J11toJ10 J10toJ11 J11toJ12 J12toJ17"/>
    </vehicle>
    <vehicle id="7" type="passenger" depart="7.00">
        <route edges="J2toJ6 J6toJ11 J11toJ16 J16toJ17 J17toJ21"/>
    </vehicle>
    <vehicle id="8" type="passenger" depart="8.00">
        <route edges="J15toJ16 J16toJ17 J17toJ21"/>
    </vehicle>
    <vehicle id="9" type="passenger" depart="9.00">
        <route edges="J4toJ5 J5toJ10 J10toJ11"/>
    </vehicle>
    <vehicle id="10" type="passenger" depart="10.00">
        <route edges="J4toJ5 J5toJ4"/>
    </vehicle>
    <vehicle id="11" type="passenger" depart="11.00">
        <route edges="J19toJ15 J15toJ10 J10toJ11 J11toJ12 J12toJ13"/>
    </vehicle>
    <vehicle id="12" type="passenger" depart="12.00">
        <route edges="J9toJ10 J10toJ15 J15toJ19"/>
    </vehicle>
    <vehicle id="13" type="passenger" depart="13.00">
        <route edges="J13toJ12 J12toJ11 J11toJ10"/>
    </vehicle>
    <vehicle id="14" type="passenger" depart="14.00">
        <route edges="J7toJ12 J12toJ17 J17toJ21"/>
    </vehicle>
    <vehicle id="15" type="passenger" depart="15.00">
        <route edges="J4toJ5 J5toJ4"/>
    </vehicle>
    <vehicle id="16" type="passenger" depart="16.00">
        <route edges="J21toJ17 J17toJ12 J12toJ7 J7toJ8"/>
    </vehicle>
    <vehicle id="17" type="passenger" depart="17.00">
        <route edges="J19toJ15 J15toJ16 J16toJ17 J17toJ21"/>
    </vehicle>
    <vehicle id="18" type="passenger" depart="18.00">
        <route edges="J6toJ11 J11toJ10 J10toJ5 J5toJ1"/>
    </vehicle>
    <vehicle id="19" type="passenger" depart="19.00">
        <route edges="J8toJ7 J7toJ12 J12toJ17 J17toJ21"/>
    </vehicle>
    <vehicle id="20" type="passenger" depart="20.00">
        <route edges="J3toJ7 J7toJ12 J12toJ11 J11toJ10 J10toJ9"/>
    </vehicle>
    <vehicle id="21" type="passenger" depart="21.00">
        <route edges="J16toJ11 J11toJ10 J10toJ15 J15toJ16"/>
    </vehicle>
    <vehicle id="22" type="passenger" depart="22.00">
        <route edges="J13toJ12 J12toJ11 J11toJ10 J10toJ15 J15toJ14"/>
    </vehicle>
    <vehicle id="23" type="passenger" depart="23.00">
        <route edges="J13toJ12 J12toJ11 J11toJ10 J10toJ15 J15toJ14"/>
    </vehicle>
    <vehicle id="24" type="passenger" depart="24.00">
        <route edges="J2toJ6 J6toJ11 J11toJ16 J16toJ11"/>
    </vehicle>
    <vehicle id="25" type="passenger" depart="25.00">
        <route edges="J19toJ15 J15toJ10"/>
    </vehicle>
    <vehicle id="26" type="passenger" depart="26.00">
        <route edges="J18toJ17 J17toJ12 J12toJ7 J7toJ8"/>
    </vehicle>
    <vehicle id="27" type="passenger" depart="27.00">
        <route edges="J2toJ6 J6toJ5 J5toJ1"/>
    </vehicle>
    <vehicle id="28" type="passenger" depart="28.00">
        <route edges="J14toJ15 J15toJ10 J10toJ5 J5toJ4"/>
    </vehicle>
    <vehicle id="29" type="passenger" depart="29.00">
        <route edges="J14toJ15 J15toJ16 J16toJ17"/>
    </vehicle>
    <vehicle id="30" type="passenger" depart="30.00">
        <route edges="J9toJ10 J10toJ5 J5toJ1"/>
    </vehicle>
    <vehicle id="31" type="passenger" depart="31.00">
        <route edges="J21toJ17 J17toJ12 J12toJ7 J7toJ6 J6toJ5 J5toJ4"/>
    </vehicle>
    <vehicle id="32" type="passenger" depart="32.00">
        <route edges="J6toJ7 J7toJ6 J6toJ2"/>
    </vehicle>
    <vehicle id="33" type="passenger" depart="33.00">
        <route edges="J16toJ11 J11toJ10 J10toJ9"/>
    </vehicle>
    <vehicle id="34" type="passenger" depart="34.00">
        <route edges="J18toJ17 J17toJ16 J16toJ15 J15toJ14"/>
    </vehicle>
    <vehicle id="35" type="passenger" depart="35.00">
        <route edges="J15toJ10 J10toJ5 J5toJ6 J6toJ7 J7toJ8"/>
    </vehicle>
    <vehicle id="36" type="passenger" depart="36.00">
        <route edges="J8toJ7 J7toJ6 J6toJ5 J5toJ10 J10toJ15 J15toJ19"/>
    </vehicle>
    <vehicle id="37" type="passenger" depart="37.00">
        <route edges="J2toJ6 J6toJ11 J11toJ16 J16toJ20"/>
    </vehicle>
    <vehicle id="38" type="passenger" depart="38.00">
        <route edges="J8toJ7 J7toJ12 J12toJ17 J17toJ16"/>
    </vehicle>
    <vehicle id="39" type="passenger" depart="39.00">
        <route edges="J18toJ17 J17toJ16 J16toJ15 J15toJ14"/>
    </vehicle>
    <vehicle id="40" type="passenger" depart="40.00">
        <route edges="J21toJ17 J17toJ16 J16toJ15 J15toJ14"/>
    </vehicle>
    <vehicle id="41" type="passenger" depart="41.00">
        <route edges="J21toJ17 J17toJ12 J12toJ7 J7toJ3"/>
    </vehicle>
    <vehicle id="42" type="passenger" depart="42.00">
        <route edges="J1toJ5 J5toJ10 J10toJ15 J15toJ14"/>
    </vehicle>
    <vehicle id="43" type="passenger" depart="43.00">
        <route edges="J9toJ10 J10toJ11 J11toJ12 J12toJ17 J17toJ18"/>
    </vehicle>
    <vehicle id="44" type="passenger" depart="44.00">
        <route edges="J13toJ12 J12toJ11 J11toJ10 J10toJ9"/>
    </vehicle>
    <vehicle id="45" type="passenger" depart="45.00">
        <route edges="J13toJ12 J12toJ11 J11toJ10 J10toJ5 J5toJ1"/>
    </vehicle>
    <vehicle id="46" type="passenger" depart="46.00">
        <route edges="J4toJ5 J5toJ6 J6toJ11 J11toJ16 J16toJ20"/>
    </vehicle>
    <vehicle id="47" type="passenger" depart="47.00">
        <route edges="J12toJ7 J7toJ6 J6toJ11 J11toJ16 J16toJ17"/>
    </vehicle>
    <vehicle id="48" type="passenger" depart="48.00">
        <route edges="J9toJ10 J10toJ11 J11toJ12 J12toJ17 J17toJ18"/>
    </vehicle>
    <vehicle id="49" type="passenger" depart="49.00">
        <route edges="J9toJ10 J10toJ11 J11toJ12 J12toJ7 J7toJ3"/>
    </vehicle>
    <vehicle id="50" type="passenger" depart="50.00">
        <route edges="J10toJ15 J15toJ10 J10toJ5 J5toJ4"/>
    </vehicle>
    <vehicle id="51" type="passenger" depart="51.00">
        <route edges="J3toJ7 J7toJ12 J12toJ17 J17toJ21"/>
    </vehicle>
    <vehicle id="52" type="passenger" depart="52.00">
        <route edges="J18toJ17 J17toJ16 J16toJ15 J15toJ10 J10toJ5 J5toJ1"/>
    </vehicle>
    <vehicle id="53" type="passenger" depart="53.00">
        <route edges="J13toJ12 J12toJ11 J11toJ16 J16toJ20"/>
    </vehicle>
    <vehicle id="54" type="passenger" depart="54.00">
        <route edges="J1toJ5 J5toJ6 J6toJ7 J7toJ8"/>
    </vehicle>
    <vehicle id="55" type="passenger" depart="55.00">
        <route edges="J8toJ7 J7toJ12 J12toJ17 J17toJ16 J16toJ15 J15toJ14"/>
    </vehicle>
    <vehicle id="56" type="passenger" depart="56.00">
        <route edges="J20toJ16 J16toJ11 J11toJ12 J12toJ13"/>
    </vehicle>
    <vehicle id="57" type="passenger" depart="57.00">
        <route edges="J8toJ7 J7toJ3"/>
    </vehicle>
    <vehicle id="58" type="passenger" depart="58.00">
        <route edges="J18toJ17 J17toJ16 J16toJ15 J15toJ10 J10toJ5 J5toJ1"/>
    </vehicle>
    <vehicle id="59" type="passenger" depart="59.00">
        <route edges="J2toJ6 J6toJ11 J11toJ12 J12toJ13"/>
    </vehicle>
    <vehicle id="60" type="passenger" depart="60.00">
        <route edges="J4toJ5 J5toJ6 J6toJ7 J7toJ12 J12toJ17 J17toJ21"/>
    </vehicle>
    <vehicle id="61" type="passenger" depart="61.00">
        <route edges="J4toJ5 J5toJ6 J6toJ11 J11toJ16 J16toJ17 J17toJ18"/>
    </vehicle>
    <vehicle id="62" type="passenger" depart="62.00">
        <route edges="J10toJ11 J11toJ16 J16toJ15 J15toJ19"/>
    </vehicle>
    <vehicle id="63" type="passenger" depart="63.00">
        <route edges="J10toJ5 J5toJ6 J6toJ7 J7toJ6"/>
    </vehicle>
    <vehicle id="64" type="passenger" depart="64.00">
        <route edges="J8toJ7 J7toJ6 J6toJ2"/>
    </vehicle>
    <vehicle id="65" type="passenger" depart="65.00">
        <route edges="J18toJ17 J17toJ16 J16toJ15 J15toJ10 J10toJ9"/>
    </vehicle>
    <vehicle id="66" type="passenger" depart="66.00">
        <route edges="J8toJ7 J7toJ8"/>
    </vehicle>
    <vehicle id="67" type="passenger" depart="67.00">
        <route edges="J13toJ12 J12toJ17 J17toJ18"/>
    </vehicle>
    <vehicle id="68" type="passenger" depart="68.00">
        <route edges="J12toJ7 J7toJ6 J6toJ11"/>
    </vehicle>
    <vehicle id="69" type="passenger" depart="69.00">
        <route edges="J4toJ5 J5toJ6 J6toJ7 J7toJ12 J12toJ13"/>
    </vehicle>
    <vehicle id="70" type="passenger" depart="70.00">
        <route edges="J20toJ16 J16toJ17 J17toJ21"/>
    </vehicle>
    <vehicle id="71" type="passenger" depart="71.00">
        <route edges="J18toJ17 J17toJ12 J12toJ7 J7toJ3"/>
    </vehicle>
    <vehicle id="72" type="passenger" depart="72.00">
        <route edges="J1toJ5 J5toJ10 J10toJ15 J15toJ10"/>
    </vehicle>
    <vehicle id="73" type="passenger" depart="73.00">
        <route edges="J21toJ17 J17toJ12 J12toJ7 J7toJ6 J6toJ5 J5toJ4"/>
    </vehicle>
    <vehicle id="74" type="passenger" depart="74.00">
        <route edges="J14toJ15 J15toJ19"/>
    </vehicle>
    <vehicle id="75" type="passenger" depart="75.00">
        <route edges="J9toJ10 J10toJ5 J5toJ1"/>
    </vehicle>
    <vehicle id="76" type="passenger" depart="76.00">
        <route edges="J1toJ5 J5toJ10 J10toJ15 J15toJ16 J16toJ17 J17toJ18"/>
    </vehicle>
    <vehicle id="77" type="passenger" depart="77.00">
        <route edges="J13toJ12 J12toJ11 J11toJ10 J10toJ15 J15toJ14"/>
    </vehicle>
    <vehicle id="78" type="passenger" depart="78.00">
        <route edges="J19toJ15 J15toJ16 J16toJ17 J17toJ21"/>
    </vehicle>
    <vehicle id="79" type="passenger" depart="79.00">
        <route edges="J16toJ15 J15toJ14"/>
    </vehicle>
    <vehicle id="80" type="passenger" depart="80.00">
        <route edges="J13toJ12 J12toJ11 J11toJ10 J10toJ5 J5toJ1"/>
    </vehicle>
    <vehicle id="81" type="passenger" depart="81.00">
        <route edges="J16toJ11 J11toJ6 J6toJ7 J7toJ3"/>
    </vehicle>
    <vehicle id="82" type="passenger" depart="82.00">
        <route edges="J7toJ6 J6toJ11 J11toJ10 J10toJ9"/>
    </vehicle>
    <vehicle id="83" type="passenger" depart="83.00">
        <route edges="J16toJ17 J17toJ12 J12toJ11 J11toJ10 J10toJ5 J5toJ1"/>
    </vehicle>
    <vehicle id="84" type="passenger" depart="84.00">
        <route edges="J15toJ10 J10toJ11 J11toJ12 J12toJ13"/>
    </vehicle>
    <vehicle id="85" type="passenger" depart="85.00">
        <route edges="J9toJ10 J10toJ11 J11toJ12 J12toJ17 J17toJ21"/>
    </vehicle>
    <vehicle id="86" type="passenger" depart="86.00">
        <route edges="J20toJ16 J16toJ11 J11toJ6 J6toJ2"/>
    </vehicle>
    <vehicle id="87" type="passenger" depart="87.00">
        <route edges="J4toJ5 J5toJ6 J6toJ7 J7toJ12 J12toJ13"/>
    </vehicle>
    <vehicle id="88" type="passenger" depart="88.00">
        <route edges="J13toJ12 J12toJ11 J11toJ16 J16toJ20"/>
    </vehicle>
    <vehicle id="89" type="passenger" depart="89.00">
        <route edges="J1toJ5 J5toJ10 J10toJ15 J15toJ16 J16toJ17 J17toJ18"/>
    </vehicle>
    <vehicle id="90" type="passenger" depart="90.00">
        <route edges="J3toJ7 J7toJ6 J6toJ5 J5toJ1"/>
    </vehicle>
    <vehicle id="91" type="passenger" depart="91.00">
        <route edges="J9toJ10 J10toJ11 J11toJ12"/>
    </vehicle>
    <vehicle id="92" type="passenger" depart="92.00">
        <route edges="J1toJ5 J5toJ10 J10toJ15 J15toJ19"/>
    </vehicle>
    <vehicle id="93" type="passenger" depart="93.00">
        <route edges="J8toJ7 J7toJ12 J12toJ17 J17toJ16 J16toJ15 J15toJ14"/>
    </vehicle>
    <vehicle id="94" type="passenger" depart="94.00">
        <route edges="J14toJ15 J15toJ16 J16toJ20"/>
    </vehicle>
    <vehicle id="95" type="passenger" depart="95.00">
        <route edges="J1toJ5 J5toJ10 J10toJ15 J15toJ14"/>
    </vehicle>
    <vehicle id="96" type="passenger" depart="96.00">
        <route edges="J17toJ12 J12toJ7 J7toJ3"/>
    </vehicle>
    <vehicle id="97" type="passenger" depart="97.00">
        <route edges="J1toJ5 J5toJ6 J6toJ7 J7toJ3"/>
    </vehicle>
    <vehicle id="98" type="passenger" depart="98.00">
        <route edges="J21toJ17 J17toJ12 J12toJ11 J11toJ10 J10toJ9"/>
    </vehicle>
    <vehicle id="99" type="passenger" depart="99.00">
        <route edges="J9toJ10 J10toJ11 J11toJ6 J6toJ5"/>
    </vehicle>
</routes>
