<?xml version="1.0" encoding="UTF-8"?>

<!-- generated on 2024-11-19 18:36:41 by Eclipse SUMO netedit Version 1.21.0
<neteditConfiguration xmlns:xsi="http://www.w3.org/2001/XMLSchema-instance" xsi:noNamespaceSchemaLocation="http://sumo.dlr.de/xsd/neteditConfiguration.xsd">

    <input>
        <sumocfg-file value="C:\SUMO\project\simple net\simpleMap.sumocfg"/>
        <additional-files value="C:\SUMO\project\simple net\simpleAdd.add.xml"/>
        <route-files value="C:\SUMO\project\simple net\simpleBusRou.rou.xml"/>
        <sumo-net-file value="C:\SUMO\project\simple net\simpleNet.net.xml"/>
    </input>

    <output>
        <output-file value="C:\SUMO\project\simple net\simpleNet.net.xml"/>
    </output>

    <processing>
        <geometry.min-radius.fix.railways value="false"/>
        <geometry.max-grade.fix value="false"/>
        <offset.disable-normalization value="true"/>
        <lefthand value="0"/>
    </processing>

    <junctions>
        <no-turnarounds value="true"/>
        <junctions.corner-detail value="5"/>
        <junctions.limit-turn-speed value="5.50"/>
        <rectangular-lane-cut value="0"/>
    </junctions>

    <pedestrian>
        <walkingareas value="0"/>
    </pedestrian>

</neteditConfiguration>
-->

<net version="1.20" junctionCornerDetail="5" limitTurnSpeed="5.50" xmlns:xsi="http://www.w3.org/2001/XMLSchema-instance" xsi:noNamespaceSchemaLocation="http://sumo.dlr.de/xsd/net_file.xsd">

    <location netOffset="0.00,0.00" convBoundary="-400.00,-400.00,400.00,400.00" origBoundary="-10000000000.00,-10000000000.00,10000000000.00,10000000000.00" projParameter="!"/>

    <edge id=":J10_0" function="internal">
        <lane id=":J10_0_0" index="0" speed="6.51" length="9.03" shape="-204.80,10.40 -205.15,7.95 -206.20,6.20 -207.95,5.15 -210.40,4.80"/>
    </edge>
    <edge id=":J10_1" function="internal">
        <lane id=":J10_1_0" index="0" speed="13.89" length="20.80" shape="-204.80,10.40 -204.80,-10.40"/>
        <lane id=":J10_1_1" index="1" speed="13.89" length="20.80" shape="-201.60,10.40 -201.60,-10.40"/>
    </edge>
    <edge id=":J10_3" function="internal">
        <lane id=":J10_3_0" index="0" speed="9.26" length="5.01" shape="-201.60,10.40 -200.89,5.44"/>
    </edge>
    <edge id=":J10_4" function="internal">
        <lane id=":J10_4_0" index="0" speed="3.65" length="1.44" shape="-201.60,10.40 -200.80,9.20"/>
    </edge>
    <edge id=":J10_20" function="internal">
        <lane id=":J10_20_0" index="0" speed="9.26" length="14.34" shape="-200.89,5.44 -200.85,5.15 -198.60,1.40 -194.85,-0.85 -189.60,-1.60"/>
    </edge>
    <edge id=":J10_21" function="internal">
        <lane id=":J10_21_0" index="0" speed="3.65" length="3.23" shape="-200.80,9.20 -200.00,8.80 -199.20,9.20 -198.40,10.40"/>
    </edge>
    <edge id=":J10_5" function="internal">
        <lane id=":J10_5_0" index="0" speed="6.51" length="9.03" shape="-189.60,4.80 -192.05,5.15 -193.80,6.20 -194.85,7.95 -195.20,10.40"/>
    </edge>
    <edge id=":J10_6" function="internal">
        <lane id=":J10_6_0" index="0" speed="13.89" length="20.80" shape="-189.60,4.80 -210.40,4.80"/>
        <lane id=":J10_6_1" index="1" speed="13.89" length="20.80" shape="-189.60,1.60 -210.40,1.60"/>
    </edge>
    <edge id=":J10_8" function="internal">
        <lane id=":J10_8_0" index="0" speed="9.26" length="5.01" shape="-189.60,1.60 -194.56,0.89"/>
    </edge>
    <edge id=":J10_9" function="internal">
        <lane id=":J10_9_0" index="0" speed="3.65" length="1.44" shape="-189.60,1.60 -190.80,0.80"/>
    </edge>
    <edge id=":J10_22" function="internal">
        <lane id=":J10_22_0" index="0" speed="9.26" length="14.34" shape="-194.56,0.89 -194.85,0.85 -198.60,-1.40 -200.85,-5.15 -201.60,-10.40"/>
    </edge>
    <edge id=":J10_23" function="internal">
        <lane id=":J10_23_0" index="0" speed="3.65" length="3.23" shape="-190.80,0.80 -191.20,0.00 -190.80,-0.80 -189.60,-1.60"/>
    </edge>
    <edge id=":J10_10" function="internal">
        <lane id=":J10_10_0" index="0" speed="6.51" length="9.03" shape="-195.20,-10.40 -194.85,-7.95 -193.80,-6.20 -192.05,-5.15 -189.60,-4.80"/>
    </edge>
    <edge id=":J10_11" function="internal">
        <lane id=":J10_11_0" index="0" speed="13.89" length="20.80" shape="-195.20,-10.40 -195.20,10.40"/>
        <lane id=":J10_11_1" index="1" speed="13.89" length="20.80" shape="-198.40,-10.40 -198.40,10.40"/>
    </edge>
    <edge id=":J10_13" function="internal">
        <lane id=":J10_13_0" index="0" speed="9.26" length="5.01" shape="-198.40,-10.40 -199.11,-5.44"/>
    </edge>
    <edge id=":J10_14" function="internal">
        <lane id=":J10_14_0" index="0" speed="3.65" length="1.44" shape="-198.40,-10.40 -199.20,-9.20"/>
    </edge>
    <edge id=":J10_24" function="internal">
        <lane id=":J10_24_0" index="0" speed="9.26" length="14.34" shape="-199.11,-5.44 -199.15,-5.15 -201.40,-1.40 -205.15,0.85 -210.40,1.60"/>
    </edge>
    <edge id=":J10_25" function="internal">
        <lane id=":J10_25_0" index="0" speed="3.65" length="3.23" shape="-199.20,-9.20 -200.00,-8.80 -200.80,-9.20 -201.60,-10.40"/>
    </edge>
    <edge id=":J10_15" function="internal">
        <lane id=":J10_15_0" index="0" speed="6.51" length="9.03" shape="-210.40,-4.80 -207.95,-5.15 -206.20,-6.20 -205.15,-7.95 -204.80,-10.40"/>
    </edge>
    <edge id=":J10_16" function="internal">
        <lane id=":J10_16_0" index="0" speed="13.89" length="20.80" shape="-210.40,-4.80 -189.60,-4.80"/>
        <lane id=":J10_16_1" index="1" speed="13.89" length="20.80" shape="-210.40,-1.60 -189.60,-1.60"/>
    </edge>
    <edge id=":J10_18" function="internal">
        <lane id=":J10_18_0" index="0" speed="9.26" length="5.01" shape="-210.40,-1.60 -205.44,-0.89"/>
    </edge>
    <edge id=":J10_19" function="internal">
        <lane id=":J10_19_0" index="0" speed="3.65" length="1.44" shape="-210.40,-1.60 -209.20,-0.80"/>
    </edge>
    <edge id=":J10_26" function="internal">
        <lane id=":J10_26_0" index="0" speed="9.26" length="14.34" shape="-205.44,-0.89 -205.15,-0.85 -201.40,1.40 -199.15,5.15 -198.40,10.40"/>
    </edge>
    <edge id=":J10_27" function="internal">
        <lane id=":J10_27_0" index="0" speed="3.65" length="3.23" shape="-209.20,-0.80 -208.80,0.00 -209.20,0.80 -210.40,1.60"/>
    </edge>
    <edge id=":J11_0" function="internal">
        <lane id=":J11_0_0" index="0" speed="6.51" length="9.03" shape="-4.80,10.40 -5.15,7.95 -6.20,6.20 -7.95,5.15 -10.40,4.80"/>
    </edge>
    <edge id=":J11_1" function="internal">
        <lane id=":J11_1_0" index="0" speed="13.89" length="20.80" shape="-4.80,10.40 -4.80,-10.40"/>
        <lane id=":J11_1_1" index="1" speed="13.89" length="20.80" shape="-1.60,10.40 -1.60,-10.40"/>
    </edge>
    <edge id=":J11_3" function="internal">
        <lane id=":J11_3_0" index="0" speed="9.26" length="5.01" shape="-1.60,10.40 -0.89,5.44"/>
    </edge>
    <edge id=":J11_4" function="internal">
        <lane id=":J11_4_0" index="0" speed="3.65" length="1.44" shape="-1.60,10.40 -0.80,9.20"/>
    </edge>
    <edge id=":J11_20" function="internal">
        <lane id=":J11_20_0" index="0" speed="9.26" length="14.34" shape="-0.89,5.44 -0.85,5.15 1.40,1.40 5.15,-0.85 10.40,-1.60"/>
    </edge>
    <edge id=":J11_21" function="internal">
        <lane id=":J11_21_0" index="0" speed="3.65" length="3.23" shape="-0.80,9.20 0.00,8.80 0.80,9.20 1.60,10.40"/>
    </edge>
    <edge id=":J11_5" function="internal">
        <lane id=":J11_5_0" index="0" speed="6.51" length="9.03" shape="10.40,4.80 7.95,5.15 6.20,6.20 5.15,7.95 4.80,10.40"/>
    </edge>
    <edge id=":J11_6" function="internal">
        <lane id=":J11_6_0" index="0" speed="13.89" length="20.80" shape="10.40,4.80 -10.40,4.80"/>
        <lane id=":J11_6_1" index="1" speed="13.89" length="20.80" shape="10.40,1.60 -10.40,1.60"/>
    </edge>
    <edge id=":J11_8" function="internal">
        <lane id=":J11_8_0" index="0" speed="9.26" length="5.01" shape="10.40,1.60 5.44,0.89"/>
    </edge>
    <edge id=":J11_9" function="internal">
        <lane id=":J11_9_0" index="0" speed="3.65" length="1.44" shape="10.40,1.60 9.20,0.80"/>
    </edge>
    <edge id=":J11_22" function="internal">
        <lane id=":J11_22_0" index="0" speed="9.26" length="14.34" shape="5.44,0.89 5.15,0.85 1.40,-1.40 -0.85,-5.15 -1.60,-10.40"/>
    </edge>
    <edge id=":J11_23" function="internal">
        <lane id=":J11_23_0" index="0" speed="3.65" length="3.23" shape="9.20,0.80 8.80,-0.00 9.20,-0.80 10.40,-1.60"/>
    </edge>
    <edge id=":J11_10" function="internal">
        <lane id=":J11_10_0" index="0" speed="6.51" length="9.03" shape="4.80,-10.40 5.15,-7.95 6.20,-6.20 7.95,-5.15 10.40,-4.80"/>
    </edge>
    <edge id=":J11_11" function="internal">
        <lane id=":J11_11_0" index="0" speed="13.89" length="20.80" shape="4.80,-10.40 4.80,10.40"/>
        <lane id=":J11_11_1" index="1" speed="13.89" length="20.80" shape="1.60,-10.40 1.60,10.40"/>
    </edge>
    <edge id=":J11_13" function="internal">
        <lane id=":J11_13_0" index="0" speed="9.26" length="5.01" shape="1.60,-10.40 0.89,-5.44"/>
    </edge>
    <edge id=":J11_14" function="internal">
        <lane id=":J11_14_0" index="0" speed="3.65" length="1.44" shape="1.60,-10.40 0.80,-9.20"/>
    </edge>
    <edge id=":J11_24" function="internal">
        <lane id=":J11_24_0" index="0" speed="9.26" length="14.34" shape="0.89,-5.44 0.85,-5.15 -1.40,-1.40 -5.15,0.85 -10.40,1.60"/>
    </edge>
    <edge id=":J11_25" function="internal">
        <lane id=":J11_25_0" index="0" speed="3.65" length="3.23" shape="0.80,-9.20 -0.00,-8.80 -0.80,-9.20 -1.60,-10.40"/>
    </edge>
    <edge id=":J11_15" function="internal">
        <lane id=":J11_15_0" index="0" speed="6.51" length="9.03" shape="-10.40,-4.80 -7.95,-5.15 -6.20,-6.20 -5.15,-7.95 -4.80,-10.40"/>
    </edge>
    <edge id=":J11_16" function="internal">
        <lane id=":J11_16_0" index="0" speed="13.89" length="20.80" shape="-10.40,-4.80 10.40,-4.80"/>
        <lane id=":J11_16_1" index="1" speed="13.89" length="20.80" shape="-10.40,-1.60 10.40,-1.60"/>
    </edge>
    <edge id=":J11_18" function="internal">
        <lane id=":J11_18_0" index="0" speed="9.26" length="5.01" shape="-10.40,-1.60 -5.44,-0.89"/>
    </edge>
    <edge id=":J11_19" function="internal">
        <lane id=":J11_19_0" index="0" speed="3.65" length="1.44" shape="-10.40,-1.60 -9.20,-0.80"/>
    </edge>
    <edge id=":J11_26" function="internal">
        <lane id=":J11_26_0" index="0" speed="9.26" length="14.34" shape="-5.44,-0.89 -5.15,-0.85 -1.40,1.40 0.85,5.15 1.60,10.40"/>
    </edge>
    <edge id=":J11_27" function="internal">
        <lane id=":J11_27_0" index="0" speed="3.65" length="3.23" shape="-9.20,-0.80 -8.80,0.00 -9.20,0.80 -10.40,1.60"/>
    </edge>
    <edge id=":J12_0" function="internal">
        <lane id=":J12_0_0" index="0" speed="6.51" length="9.03" shape="195.20,10.40 194.85,7.95 193.80,6.20 192.05,5.15 189.60,4.80"/>
    </edge>
    <edge id=":J12_1" function="internal">
        <lane id=":J12_1_0" index="0" speed="13.89" length="20.80" shape="195.20,10.40 195.20,-10.40"/>
        <lane id=":J12_1_1" index="1" speed="13.89" length="20.80" shape="198.40,10.40 198.40,-10.40"/>
    </edge>
    <edge id=":J12_3" function="internal">
        <lane id=":J12_3_0" index="0" speed="9.26" length="5.01" shape="198.40,10.40 199.11,5.44"/>
    </edge>
    <edge id=":J12_4" function="internal">
        <lane id=":J12_4_0" index="0" speed="3.65" length="1.44" shape="198.40,10.40 199.20,9.20"/>
    </edge>
    <edge id=":J12_20" function="internal">
        <lane id=":J12_20_0" index="0" speed="9.26" length="14.34" shape="199.11,5.44 199.15,5.15 201.40,1.40 205.15,-0.85 210.40,-1.60"/>
    </edge>
    <edge id=":J12_21" function="internal">
        <lane id=":J12_21_0" index="0" speed="3.65" length="3.23" shape="199.20,9.20 200.00,8.80 200.80,9.20 201.60,10.40"/>
    </edge>
    <edge id=":J12_5" function="internal">
        <lane id=":J12_5_0" index="0" speed="6.51" length="9.03" shape="210.40,4.80 207.95,5.15 206.20,6.20 205.15,7.95 204.80,10.40"/>
    </edge>
    <edge id=":J12_6" function="internal">
        <lane id=":J12_6_0" index="0" speed="13.89" length="20.80" shape="210.40,4.80 189.60,4.80"/>
        <lane id=":J12_6_1" index="1" speed="13.89" length="20.80" shape="210.40,1.60 189.60,1.60"/>
    </edge>
    <edge id=":J12_8" function="internal">
        <lane id=":J12_8_0" index="0" speed="9.26" length="5.01" shape="210.40,1.60 205.44,0.89"/>
    </edge>
    <edge id=":J12_9" function="internal">
        <lane id=":J12_9_0" index="0" speed="3.65" length="1.44" shape="210.40,1.60 209.20,0.80"/>
    </edge>
    <edge id=":J12_22" function="internal">
        <lane id=":J12_22_0" index="0" speed="9.26" length="14.34" shape="205.44,0.89 205.15,0.85 201.40,-1.40 199.15,-5.15 198.40,-10.40"/>
    </edge>
    <edge id=":J12_23" function="internal">
        <lane id=":J12_23_0" index="0" speed="3.65" length="3.23" shape="209.20,0.80 208.80,0.00 209.20,-0.80 210.40,-1.60"/>
    </edge>
    <edge id=":J12_10" function="internal">
        <lane id=":J12_10_0" index="0" speed="6.51" length="9.03" shape="204.80,-10.40 205.15,-7.95 206.20,-6.20 207.95,-5.15 210.40,-4.80"/>
    </edge>
    <edge id=":J12_11" function="internal">
        <lane id=":J12_11_0" index="0" speed="13.89" length="20.80" shape="204.80,-10.40 204.80,10.40"/>
        <lane id=":J12_11_1" index="1" speed="13.89" length="20.80" shape="201.60,-10.40 201.60,10.40"/>
    </edge>
    <edge id=":J12_13" function="internal">
        <lane id=":J12_13_0" index="0" speed="9.26" length="5.01" shape="201.60,-10.40 200.89,-5.44"/>
    </edge>
    <edge id=":J12_14" function="internal">
        <lane id=":J12_14_0" index="0" speed="3.65" length="1.44" shape="201.60,-10.40 200.80,-9.20"/>
    </edge>
    <edge id=":J12_24" function="internal">
        <lane id=":J12_24_0" index="0" speed="9.26" length="14.34" shape="200.89,-5.44 200.85,-5.15 198.60,-1.40 194.85,0.85 189.60,1.60"/>
    </edge>
    <edge id=":J12_25" function="internal">
        <lane id=":J12_25_0" index="0" speed="3.65" length="3.23" shape="200.80,-9.20 200.00,-8.80 199.20,-9.20 198.40,-10.40"/>
    </edge>
    <edge id=":J12_15" function="internal">
        <lane id=":J12_15_0" index="0" speed="6.51" length="9.03" shape="189.60,-4.80 192.05,-5.15 193.80,-6.20 194.85,-7.95 195.20,-10.40"/>
    </edge>
    <edge id=":J12_16" function="internal">
        <lane id=":J12_16_0" index="0" speed="13.89" length="20.80" shape="189.60,-4.80 210.40,-4.80"/>
        <lane id=":J12_16_1" index="1" speed="13.89" length="20.80" shape="189.60,-1.60 210.40,-1.60"/>
    </edge>
    <edge id=":J12_18" function="internal">
        <lane id=":J12_18_0" index="0" speed="9.26" length="5.01" shape="189.60,-1.60 194.56,-0.89"/>
    </edge>
    <edge id=":J12_19" function="internal">
        <lane id=":J12_19_0" index="0" speed="3.65" length="1.44" shape="189.60,-1.60 190.80,-0.80"/>
    </edge>
    <edge id=":J12_26" function="internal">
        <lane id=":J12_26_0" index="0" speed="9.26" length="14.34" shape="194.56,-0.89 194.85,-0.85 198.60,1.40 200.85,5.15 201.60,10.40"/>
    </edge>
    <edge id=":J12_27" function="internal">
        <lane id=":J12_27_0" index="0" speed="3.65" length="3.23" shape="190.80,-0.80 191.20,0.00 190.80,0.80 189.60,1.60"/>
    </edge>
    <edge id=":J15_0" function="internal">
        <lane id=":J15_0_0" index="0" speed="6.51" length="9.03" shape="-204.80,-189.60 -205.15,-192.05 -206.20,-193.80 -207.95,-194.85 -210.40,-195.20"/>
    </edge>
    <edge id=":J15_1" function="internal">
        <lane id=":J15_1_0" index="0" speed="13.89" length="20.80" shape="-204.80,-189.60 -204.80,-210.40"/>
        <lane id=":J15_1_1" index="1" speed="13.89" length="20.80" shape="-201.60,-189.60 -201.60,-210.40"/>
    </edge>
    <edge id=":J15_3" function="internal">
        <lane id=":J15_3_0" index="0" speed="9.26" length="5.01" shape="-201.60,-189.60 -200.89,-194.56"/>
    </edge>
    <edge id=":J15_4" function="internal">
        <lane id=":J15_4_0" index="0" speed="3.65" length="1.44" shape="-201.60,-189.60 -200.80,-190.80"/>
    </edge>
    <edge id=":J15_20" function="internal">
        <lane id=":J15_20_0" index="0" speed="9.26" length="14.34" shape="-200.89,-194.56 -200.85,-194.85 -198.60,-198.60 -194.85,-200.85 -189.60,-201.60"/>
    </edge>
    <edge id=":J15_21" function="internal">
        <lane id=":J15_21_0" index="0" speed="3.65" length="3.23" shape="-200.80,-190.80 -200.00,-191.20 -199.20,-190.80 -198.40,-189.60"/>
    </edge>
    <edge id=":J15_5" function="internal">
        <lane id=":J15_5_0" index="0" speed="6.51" length="9.03" shape="-189.60,-195.20 -192.05,-194.85 -193.80,-193.80 -194.85,-192.05 -195.20,-189.60"/>
    </edge>
    <edge id=":J15_6" function="internal">
        <lane id=":J15_6_0" index="0" speed="13.89" length="20.80" shape="-189.60,-195.20 -210.40,-195.20"/>
        <lane id=":J15_6_1" index="1" speed="13.89" length="20.80" shape="-189.60,-198.40 -210.40,-198.40"/>
    </edge>
    <edge id=":J15_8" function="internal">
        <lane id=":J15_8_0" index="0" speed="9.26" length="5.01" shape="-189.60,-198.40 -194.56,-199.11"/>
    </edge>
    <edge id=":J15_9" function="internal">
        <lane id=":J15_9_0" index="0" speed="3.65" length="1.44" shape="-189.60,-198.40 -190.80,-199.20"/>
    </edge>
    <edge id=":J15_22" function="internal">
        <lane id=":J15_22_0" index="0" speed="9.26" length="14.34" shape="-194.56,-199.11 -194.85,-199.15 -198.60,-201.40 -200.85,-205.15 -201.60,-210.40"/>
    </edge>
    <edge id=":J15_23" function="internal">
        <lane id=":J15_23_0" index="0" speed="3.65" length="3.23" shape="-190.80,-199.20 -191.20,-200.00 -190.80,-200.80 -189.60,-201.60"/>
    </edge>
    <edge id=":J15_10" function="internal">
        <lane id=":J15_10_0" index="0" speed="6.51" length="9.03" shape="-195.20,-210.40 -194.85,-207.95 -193.80,-206.20 -192.05,-205.15 -189.60,-204.80"/>
    </edge>
    <edge id=":J15_11" function="internal">
        <lane id=":J15_11_0" index="0" speed="13.89" length="20.80" shape="-195.20,-210.40 -195.20,-189.60"/>
        <lane id=":J15_11_1" index="1" speed="13.89" length="20.80" shape="-198.40,-210.40 -198.40,-189.60"/>
    </edge>
    <edge id=":J15_13" function="internal">
        <lane id=":J15_13_0" index="0" speed="9.26" length="5.01" shape="-198.40,-210.40 -199.11,-205.44"/>
    </edge>
    <edge id=":J15_14" function="internal">
        <lane id=":J15_14_0" index="0" speed="3.65" length="1.44" shape="-198.40,-210.40 -199.20,-209.20"/>
    </edge>
    <edge id=":J15_24" function="internal">
        <lane id=":J15_24_0" index="0" speed="9.26" length="14.34" shape="-199.11,-205.44 -199.15,-205.15 -201.40,-201.40 -205.15,-199.15 -210.40,-198.40"/>
    </edge>
    <edge id=":J15_25" function="internal">
        <lane id=":J15_25_0" index="0" speed="3.65" length="3.23" shape="-199.20,-209.20 -200.00,-208.80 -200.80,-209.20 -201.60,-210.40"/>
    </edge>
    <edge id=":J15_15" function="internal">
        <lane id=":J15_15_0" index="0" speed="6.51" length="9.03" shape="-210.40,-204.80 -207.95,-205.15 -206.20,-206.20 -205.15,-207.95 -204.80,-210.40"/>
    </edge>
    <edge id=":J15_16" function="internal">
        <lane id=":J15_16_0" index="0" speed="13.89" length="20.80" shape="-210.40,-204.80 -189.60,-204.80"/>
        <lane id=":J15_16_1" index="1" speed="13.89" length="20.80" shape="-210.40,-201.60 -189.60,-201.60"/>
    </edge>
    <edge id=":J15_18" function="internal">
        <lane id=":J15_18_0" index="0" speed="9.26" length="5.01" shape="-210.40,-201.60 -205.44,-200.89"/>
    </edge>
    <edge id=":J15_19" function="internal">
        <lane id=":J15_19_0" index="0" speed="3.65" length="1.44" shape="-210.40,-201.60 -209.20,-200.80"/>
    </edge>
    <edge id=":J15_26" function="internal">
        <lane id=":J15_26_0" index="0" speed="9.26" length="14.34" shape="-205.44,-200.89 -205.15,-200.85 -201.40,-198.60 -199.15,-194.85 -198.40,-189.60"/>
    </edge>
    <edge id=":J15_27" function="internal">
        <lane id=":J15_27_0" index="0" speed="3.65" length="3.23" shape="-209.20,-200.80 -208.80,-200.00 -209.20,-199.20 -210.40,-198.40"/>
    </edge>
    <edge id=":J16_0" function="internal">
        <lane id=":J16_0_0" index="0" speed="6.51" length="9.03" shape="-4.80,-189.60 -5.15,-192.05 -6.20,-193.80 -7.95,-194.85 -10.40,-195.20"/>
    </edge>
    <edge id=":J16_1" function="internal">
        <lane id=":J16_1_0" index="0" speed="13.89" length="20.80" shape="-4.80,-189.60 -4.80,-210.40"/>
        <lane id=":J16_1_1" index="1" speed="13.89" length="20.80" shape="-1.60,-189.60 -1.60,-210.40"/>
    </edge>
    <edge id=":J16_3" function="internal">
        <lane id=":J16_3_0" index="0" speed="9.26" length="5.01" shape="-1.60,-189.60 -0.89,-194.56"/>
    </edge>
    <edge id=":J16_4" function="internal">
        <lane id=":J16_4_0" index="0" speed="3.65" length="1.44" shape="-1.60,-189.60 -0.80,-190.80"/>
    </edge>
    <edge id=":J16_20" function="internal">
        <lane id=":J16_20_0" index="0" speed="9.26" length="14.34" shape="-0.89,-194.56 -0.85,-194.85 1.40,-198.60 5.15,-200.85 10.40,-201.60"/>
    </edge>
    <edge id=":J16_21" function="internal">
        <lane id=":J16_21_0" index="0" speed="3.65" length="3.23" shape="-0.80,-190.80 0.00,-191.20 0.80,-190.80 1.60,-189.60"/>
    </edge>
    <edge id=":J16_5" function="internal">
        <lane id=":J16_5_0" index="0" speed="6.51" length="9.03" shape="10.40,-195.20 7.95,-194.85 6.20,-193.80 5.15,-192.05 4.80,-189.60"/>
    </edge>
    <edge id=":J16_6" function="internal">
        <lane id=":J16_6_0" index="0" speed="13.89" length="20.80" shape="10.40,-195.20 -10.40,-195.20"/>
        <lane id=":J16_6_1" index="1" speed="13.89" length="20.80" shape="10.40,-198.40 -10.40,-198.40"/>
    </edge>
    <edge id=":J16_8" function="internal">
        <lane id=":J16_8_0" index="0" speed="9.26" length="5.01" shape="10.40,-198.40 5.44,-199.11"/>
    </edge>
    <edge id=":J16_9" function="internal">
        <lane id=":J16_9_0" index="0" speed="3.65" length="1.44" shape="10.40,-198.40 9.20,-199.20"/>
    </edge>
    <edge id=":J16_22" function="internal">
        <lane id=":J16_22_0" index="0" speed="9.26" length="14.34" shape="5.44,-199.11 5.15,-199.15 1.40,-201.40 -0.85,-205.15 -1.60,-210.40"/>
    </edge>
    <edge id=":J16_23" function="internal">
        <lane id=":J16_23_0" index="0" speed="3.65" length="3.23" shape="9.20,-199.20 8.80,-200.00 9.20,-200.80 10.40,-201.60"/>
    </edge>
    <edge id=":J16_10" function="internal">
        <lane id=":J16_10_0" index="0" speed="6.51" length="9.03" shape="4.80,-210.40 5.15,-207.95 6.20,-206.20 7.95,-205.15 10.40,-204.80"/>
    </edge>
    <edge id=":J16_11" function="internal">
        <lane id=":J16_11_0" index="0" speed="13.89" length="20.80" shape="4.80,-210.40 4.80,-189.60"/>
        <lane id=":J16_11_1" index="1" speed="13.89" length="20.80" shape="1.60,-210.40 1.60,-189.60"/>
    </edge>
    <edge id=":J16_13" function="internal">
        <lane id=":J16_13_0" index="0" speed="9.26" length="5.01" shape="1.60,-210.40 0.89,-205.44"/>
    </edge>
    <edge id=":J16_14" function="internal">
        <lane id=":J16_14_0" index="0" speed="3.65" length="1.44" shape="1.60,-210.40 0.80,-209.20"/>
    </edge>
    <edge id=":J16_24" function="internal">
        <lane id=":J16_24_0" index="0" speed="9.26" length="14.34" shape="0.89,-205.44 0.85,-205.15 -1.40,-201.40 -5.15,-199.15 -10.40,-198.40"/>
    </edge>
    <edge id=":J16_25" function="internal">
        <lane id=":J16_25_0" index="0" speed="3.65" length="3.23" shape="0.80,-209.20 0.00,-208.80 -0.80,-209.20 -1.60,-210.40"/>
    </edge>
    <edge id=":J16_15" function="internal">
        <lane id=":J16_15_0" index="0" speed="6.51" length="9.03" shape="-10.40,-204.80 -7.95,-205.15 -6.20,-206.20 -5.15,-207.95 -4.80,-210.40"/>
    </edge>
    <edge id=":J16_16" function="internal">
        <lane id=":J16_16_0" index="0" speed="13.89" length="20.80" shape="-10.40,-204.80 10.40,-204.80"/>
        <lane id=":J16_16_1" index="1" speed="13.89" length="20.80" shape="-10.40,-201.60 10.40,-201.60"/>
    </edge>
    <edge id=":J16_18" function="internal">
        <lane id=":J16_18_0" index="0" speed="9.26" length="5.01" shape="-10.40,-201.60 -5.44,-200.89"/>
    </edge>
    <edge id=":J16_19" function="internal">
        <lane id=":J16_19_0" index="0" speed="3.65" length="1.44" shape="-10.40,-201.60 -9.20,-200.80"/>
    </edge>
    <edge id=":J16_26" function="internal">
        <lane id=":J16_26_0" index="0" speed="9.26" length="14.34" shape="-5.44,-200.89 -5.15,-200.85 -1.40,-198.60 0.85,-194.85 1.60,-189.60"/>
    </edge>
    <edge id=":J16_27" function="internal">
        <lane id=":J16_27_0" index="0" speed="3.65" length="3.23" shape="-9.20,-200.80 -8.80,-200.00 -9.20,-199.20 -10.40,-198.40"/>
    </edge>
    <edge id=":J17_0" function="internal">
        <lane id=":J17_0_0" index="0" speed="6.51" length="9.03" shape="195.20,-189.60 194.85,-192.05 193.80,-193.80 192.05,-194.85 189.60,-195.20"/>
    </edge>
    <edge id=":J17_1" function="internal">
        <lane id=":J17_1_0" index="0" speed="13.89" length="20.80" shape="195.20,-189.60 195.20,-210.40"/>
        <lane id=":J17_1_1" index="1" speed="13.89" length="20.80" shape="198.40,-189.60 198.40,-210.40"/>
    </edge>
    <edge id=":J17_3" function="internal">
        <lane id=":J17_3_0" index="0" speed="9.26" length="5.01" shape="198.40,-189.60 199.11,-194.56"/>
    </edge>
    <edge id=":J17_4" function="internal">
        <lane id=":J17_4_0" index="0" speed="3.65" length="1.44" shape="198.40,-189.60 199.20,-190.80"/>
    </edge>
    <edge id=":J17_20" function="internal">
        <lane id=":J17_20_0" index="0" speed="9.26" length="14.34" shape="199.11,-194.56 199.15,-194.85 201.40,-198.60 205.15,-200.85 210.40,-201.60"/>
    </edge>
    <edge id=":J17_21" function="internal">
        <lane id=":J17_21_0" index="0" speed="3.65" length="3.23" shape="199.20,-190.80 200.00,-191.20 200.80,-190.80 201.60,-189.60"/>
    </edge>
    <edge id=":J17_5" function="internal">
        <lane id=":J17_5_0" index="0" speed="6.51" length="9.03" shape="210.40,-195.20 207.95,-194.85 206.20,-193.80 205.15,-192.05 204.80,-189.60"/>
    </edge>
    <edge id=":J17_6" function="internal">
        <lane id=":J17_6_0" index="0" speed="13.89" length="20.80" shape="210.40,-195.20 189.60,-195.20"/>
        <lane id=":J17_6_1" index="1" speed="13.89" length="20.80" shape="210.40,-198.40 189.60,-198.40"/>
    </edge>
    <edge id=":J17_8" function="internal">
        <lane id=":J17_8_0" index="0" speed="9.26" length="5.01" shape="210.40,-198.40 205.44,-199.11"/>
    </edge>
    <edge id=":J17_9" function="internal">
        <lane id=":J17_9_0" index="0" speed="3.65" length="1.44" shape="210.40,-198.40 209.20,-199.20"/>
    </edge>
    <edge id=":J17_22" function="internal">
        <lane id=":J17_22_0" index="0" speed="9.26" length="14.34" shape="205.44,-199.11 205.15,-199.15 201.40,-201.40 199.15,-205.15 198.40,-210.40"/>
    </edge>
    <edge id=":J17_23" function="internal">
        <lane id=":J17_23_0" index="0" speed="3.65" length="3.23" shape="209.20,-199.20 208.80,-200.00 209.20,-200.80 210.40,-201.60"/>
    </edge>
    <edge id=":J17_10" function="internal">
        <lane id=":J17_10_0" index="0" speed="6.51" length="9.03" shape="204.80,-210.40 205.15,-207.95 206.20,-206.20 207.95,-205.15 210.40,-204.80"/>
    </edge>
    <edge id=":J17_11" function="internal">
        <lane id=":J17_11_0" index="0" speed="13.89" length="20.80" shape="204.80,-210.40 204.80,-189.60"/>
        <lane id=":J17_11_1" index="1" speed="13.89" length="20.80" shape="201.60,-210.40 201.60,-189.60"/>
    </edge>
    <edge id=":J17_13" function="internal">
        <lane id=":J17_13_0" index="0" speed="9.26" length="5.01" shape="201.60,-210.40 200.89,-205.44"/>
    </edge>
    <edge id=":J17_14" function="internal">
        <lane id=":J17_14_0" index="0" speed="3.65" length="1.44" shape="201.60,-210.40 200.80,-209.20"/>
    </edge>
    <edge id=":J17_24" function="internal">
        <lane id=":J17_24_0" index="0" speed="9.26" length="14.34" shape="200.89,-205.44 200.85,-205.15 198.60,-201.40 194.85,-199.15 189.60,-198.40"/>
    </edge>
    <edge id=":J17_25" function="internal">
        <lane id=":J17_25_0" index="0" speed="3.65" length="3.23" shape="200.80,-209.20 200.00,-208.80 199.20,-209.20 198.40,-210.40"/>
    </edge>
    <edge id=":J17_15" function="internal">
        <lane id=":J17_15_0" index="0" speed="6.51" length="9.03" shape="189.60,-204.80 192.05,-205.15 193.80,-206.20 194.85,-207.95 195.20,-210.40"/>
    </edge>
    <edge id=":J17_16" function="internal">
        <lane id=":J17_16_0" index="0" speed="13.89" length="20.80" shape="189.60,-204.80 210.40,-204.80"/>
        <lane id=":J17_16_1" index="1" speed="13.89" length="20.80" shape="189.60,-201.60 210.40,-201.60"/>
    </edge>
    <edge id=":J17_18" function="internal">
        <lane id=":J17_18_0" index="0" speed="9.26" length="5.01" shape="189.60,-201.60 194.56,-200.89"/>
    </edge>
    <edge id=":J17_19" function="internal">
        <lane id=":J17_19_0" index="0" speed="3.65" length="1.44" shape="189.60,-201.60 190.80,-200.80"/>
    </edge>
    <edge id=":J17_26" function="internal">